
---------- Begin Simulation Statistics ----------
final_tick                                 1301221000                       # Number of ticks from beginning of simulation (restored from checkpoints and never reset)
host_inst_rate                                  91144                       # Simulator instruction rate (inst/s)
host_mem_usage                                 671076                       # Number of bytes of host memory used
host_op_rate                                   109367                       # Simulator op (including micro ops) rate (op/s)
host_seconds                                     0.20                       # Real time elapsed on the host
host_tick_rate                             6656952713                       # Simulator tick rate (ticks/s)
sim_freq                                 1000000000000                       # Frequency of simulated ticks
sim_insts                                       17798                       # Number of instructions simulated
sim_ops                                         21372                       # Number of ops (including micro ops) simulated
sim_seconds                                  0.001301                       # Number of seconds simulated
sim_ticks                                  1301221000                       # Number of ticks simulated
system.cpu.Branches                              3353                       # Number of branches fetched
system.cpu.committedInsts                       17798                       # Number of instructions committed
system.cpu.committedOps                         21372                       # Number of ops (including micro ops) committed
system.cpu.dtb.accesses                             0                       # DTB accesses
system.cpu.dtb.align_faults                         0                       # Number of TLB faults due to alignment restrictions
system.cpu.dtb.domain_faults                        0                       # Number of TLB faults due to domain restrictions
system.cpu.dtb.flush_entries                        0                       # Number of entries that have been flushed from TLB
system.cpu.dtb.flush_tlb                            0                       # Number of times complete TLB was flushed
system.cpu.dtb.flush_tlb_asid                       0                       # Number of times TLB was flushed by ASID
system.cpu.dtb.flush_tlb_mva                        0                       # Number of times TLB was flushed by MVA
system.cpu.dtb.flush_tlb_mva_asid                   0                       # Number of times TLB was flushed by MVA & ASID
system.cpu.dtb.hits                                 0                       # DTB hits
system.cpu.dtb.inst_accesses                        0                       # ITB inst accesses
system.cpu.dtb.inst_hits                            0                       # ITB inst hits
system.cpu.dtb.inst_misses                          0                       # ITB inst misses
system.cpu.dtb.misses                               0                       # DTB misses
system.cpu.dtb.perms_faults                         0                       # Number of TLB faults due to permissions restrictions
system.cpu.dtb.prefetch_faults                      0                       # Number of TLB faults due to prefetch
system.cpu.dtb.read_accesses                        0                       # DTB read accesses
system.cpu.dtb.read_hits                            0                       # DTB read hits
system.cpu.dtb.read_misses                          0                       # DTB read misses
system.cpu.dtb.stage2_mmu.stage2_tlb.accesses            0                       # DTB accesses
system.cpu.dtb.stage2_mmu.stage2_tlb.align_faults            0                       # Number of TLB faults due to alignment restrictions
system.cpu.dtb.stage2_mmu.stage2_tlb.domain_faults            0                       # Number of TLB faults due to domain restrictions
system.cpu.dtb.stage2_mmu.stage2_tlb.flush_entries            0                       # Number of entries that have been flushed from TLB
system.cpu.dtb.stage2_mmu.stage2_tlb.flush_tlb            0                       # Number of times complete TLB was flushed
system.cpu.dtb.stage2_mmu.stage2_tlb.flush_tlb_asid            0                       # Number of times TLB was flushed by ASID
system.cpu.dtb.stage2_mmu.stage2_tlb.flush_tlb_mva            0                       # Number of times TLB was flushed by MVA
system.cpu.dtb.stage2_mmu.stage2_tlb.flush_tlb_mva_asid            0                       # Number of times TLB was flushed by MVA & ASID
system.cpu.dtb.stage2_mmu.stage2_tlb.hits            0                       # DTB hits
system.cpu.dtb.stage2_mmu.stage2_tlb.inst_accesses            0                       # ITB inst accesses
system.cpu.dtb.stage2_mmu.stage2_tlb.inst_hits            0                       # ITB inst hits
system.cpu.dtb.stage2_mmu.stage2_tlb.inst_misses            0                       # ITB inst misses
system.cpu.dtb.stage2_mmu.stage2_tlb.misses            0                       # DTB misses
system.cpu.dtb.stage2_mmu.stage2_tlb.perms_faults            0                       # Number of TLB faults due to permissions restrictions
system.cpu.dtb.stage2_mmu.stage2_tlb.prefetch_faults            0                       # Number of TLB faults due to prefetch
system.cpu.dtb.stage2_mmu.stage2_tlb.read_accesses            0                       # DTB read accesses
system.cpu.dtb.stage2_mmu.stage2_tlb.read_hits            0                       # DTB read hits
system.cpu.dtb.stage2_mmu.stage2_tlb.read_misses            0                       # DTB read misses
system.cpu.dtb.stage2_mmu.stage2_tlb.walker.walkRequestOrigin_Requested::Data            0                       # Table walker requests started/completed, data/inst
system.cpu.dtb.stage2_mmu.stage2_tlb.walker.walkRequestOrigin_Requested::Inst            0                       # Table walker requests started/completed, data/inst
system.cpu.dtb.stage2_mmu.stage2_tlb.walker.walkRequestOrigin_Requested::total            0                       # Table walker requests started/completed, data/inst
system.cpu.dtb.stage2_mmu.stage2_tlb.walker.walkRequestOrigin_Completed::Data            0                       # Table walker requests started/completed, data/inst
system.cpu.dtb.stage2_mmu.stage2_tlb.walker.walkRequestOrigin_Completed::Inst            0                       # Table walker requests started/completed, data/inst
system.cpu.dtb.stage2_mmu.stage2_tlb.walker.walkRequestOrigin_Completed::total            0                       # Table walker requests started/completed, data/inst
system.cpu.dtb.stage2_mmu.stage2_tlb.walker.walkRequestOrigin::total            0                       # Table walker requests started/completed, data/inst
system.cpu.dtb.stage2_mmu.stage2_tlb.walker.walks            0                       # Table walker walks requested
system.cpu.dtb.stage2_mmu.stage2_tlb.write_accesses            0                       # DTB write accesses
system.cpu.dtb.stage2_mmu.stage2_tlb.write_hits            0                       # DTB write hits
system.cpu.dtb.stage2_mmu.stage2_tlb.write_misses            0                       # DTB write misses
system.cpu.dtb.walker.walkRequestOrigin_Requested::Data            0                       # Table walker requests started/completed, data/inst
system.cpu.dtb.walker.walkRequestOrigin_Requested::Inst            0                       # Table walker requests started/completed, data/inst
system.cpu.dtb.walker.walkRequestOrigin_Requested::total            0                       # Table walker requests started/completed, data/inst
system.cpu.dtb.walker.walkRequestOrigin_Completed::Data            0                       # Table walker requests started/completed, data/inst
system.cpu.dtb.walker.walkRequestOrigin_Completed::Inst            0                       # Table walker requests started/completed, data/inst
system.cpu.dtb.walker.walkRequestOrigin_Completed::total            0                       # Table walker requests started/completed, data/inst
system.cpu.dtb.walker.walkRequestOrigin::total            0                       # Table walker requests started/completed, data/inst
system.cpu.dtb.walker.walks                         0                       # Table walker walks requested
system.cpu.dtb.write_accesses                       0                       # DTB write accesses
system.cpu.dtb.write_hits                           0                       # DTB write hits
system.cpu.dtb.write_misses                         0                       # DTB write misses
system.cpu.idle_fraction                     0.000000                       # Percentage of idle cycles
system.cpu.itb.accesses                             0                       # DTB accesses
system.cpu.itb.align_faults                         0                       # Number of TLB faults due to alignment restrictions
system.cpu.itb.domain_faults                        0                       # Number of TLB faults due to domain restrictions
system.cpu.itb.flush_entries                        0                       # Number of entries that have been flushed from TLB
system.cpu.itb.flush_tlb                            0                       # Number of times complete TLB was flushed
system.cpu.itb.flush_tlb_asid                       0                       # Number of times TLB was flushed by ASID
system.cpu.itb.flush_tlb_mva                        0                       # Number of times TLB was flushed by MVA
system.cpu.itb.flush_tlb_mva_asid                   0                       # Number of times TLB was flushed by MVA & ASID
system.cpu.itb.hits                                 0                       # DTB hits
system.cpu.itb.inst_accesses                        0                       # ITB inst accesses
system.cpu.itb.inst_hits                            0                       # ITB inst hits
system.cpu.itb.inst_misses                          0                       # ITB inst misses
system.cpu.itb.misses                               0                       # DTB misses
system.cpu.itb.perms_faults                         0                       # Number of TLB faults due to permissions restrictions
system.cpu.itb.prefetch_faults                      0                       # Number of TLB faults due to prefetch
system.cpu.itb.read_accesses                        0                       # DTB read accesses
system.cpu.itb.read_hits                            0                       # DTB read hits
system.cpu.itb.read_misses                          0                       # DTB read misses
system.cpu.itb.stage2_mmu.stage2_tlb.accesses            0                       # DTB accesses
system.cpu.itb.stage2_mmu.stage2_tlb.align_faults            0                       # Number of TLB faults due to alignment restrictions
system.cpu.itb.stage2_mmu.stage2_tlb.domain_faults            0                       # Number of TLB faults due to domain restrictions
system.cpu.itb.stage2_mmu.stage2_tlb.flush_entries            0                       # Number of entries that have been flushed from TLB
system.cpu.itb.stage2_mmu.stage2_tlb.flush_tlb            0                       # Number of times complete TLB was flushed
system.cpu.itb.stage2_mmu.stage2_tlb.flush_tlb_asid            0                       # Number of times TLB was flushed by ASID
system.cpu.itb.stage2_mmu.stage2_tlb.flush_tlb_mva            0                       # Number of times TLB was flushed by MVA
system.cpu.itb.stage2_mmu.stage2_tlb.flush_tlb_mva_asid            0                       # Number of times TLB was flushed by MVA & ASID
system.cpu.itb.stage2_mmu.stage2_tlb.hits            0                       # DTB hits
system.cpu.itb.stage2_mmu.stage2_tlb.inst_accesses            0                       # ITB inst accesses
system.cpu.itb.stage2_mmu.stage2_tlb.inst_hits            0                       # ITB inst hits
system.cpu.itb.stage2_mmu.stage2_tlb.inst_misses            0                       # ITB inst misses
system.cpu.itb.stage2_mmu.stage2_tlb.misses            0                       # DTB misses
system.cpu.itb.stage2_mmu.stage2_tlb.perms_faults            0                       # Number of TLB faults due to permissions restrictions
system.cpu.itb.stage2_mmu.stage2_tlb.prefetch_faults            0                       # Number of TLB faults due to prefetch
system.cpu.itb.stage2_mmu.stage2_tlb.read_accesses            0                       # DTB read accesses
system.cpu.itb.stage2_mmu.stage2_tlb.read_hits            0                       # DTB read hits
system.cpu.itb.stage2_mmu.stage2_tlb.read_misses            0                       # DTB read misses
system.cpu.itb.stage2_mmu.stage2_tlb.walker.walkRequestOrigin_Requested::Data            0                       # Table walker requests started/completed, data/inst
system.cpu.itb.stage2_mmu.stage2_tlb.walker.walkRequestOrigin_Requested::Inst            0                       # Table walker requests started/completed, data/inst
system.cpu.itb.stage2_mmu.stage2_tlb.walker.walkRequestOrigin_Requested::total            0                       # Table walker requests started/completed, data/inst
system.cpu.itb.stage2_mmu.stage2_tlb.walker.walkRequestOrigin_Completed::Data            0                       # Table walker requests started/completed, data/inst
system.cpu.itb.stage2_mmu.stage2_tlb.walker.walkRequestOrigin_Completed::Inst            0                       # Table walker requests started/completed, data/inst
system.cpu.itb.stage2_mmu.stage2_tlb.walker.walkRequestOrigin_Completed::total            0                       # Table walker requests started/completed, data/inst
system.cpu.itb.stage2_mmu.stage2_tlb.walker.walkRequestOrigin::total            0                       # Table walker requests started/completed, data/inst
system.cpu.itb.stage2_mmu.stage2_tlb.walker.walks            0                       # Table walker walks requested
system.cpu.itb.stage2_mmu.stage2_tlb.write_accesses            0                       # DTB write accesses
system.cpu.itb.stage2_mmu.stage2_tlb.write_hits            0                       # DTB write hits
system.cpu.itb.stage2_mmu.stage2_tlb.write_misses            0                       # DTB write misses
system.cpu.itb.walker.walkRequestOrigin_Requested::Data            0                       # Table walker requests started/completed, data/inst
system.cpu.itb.walker.walkRequestOrigin_Requested::Inst            0                       # Table walker requests started/completed, data/inst
system.cpu.itb.walker.walkRequestOrigin_Requested::total            0                       # Table walker requests started/completed, data/inst
system.cpu.itb.walker.walkRequestOrigin_Completed::Data            0                       # Table walker requests started/completed, data/inst
system.cpu.itb.walker.walkRequestOrigin_Completed::Inst            0                       # Table walker requests started/completed, data/inst
system.cpu.itb.walker.walkRequestOrigin_Completed::total            0                       # Table walker requests started/completed, data/inst
system.cpu.itb.walker.walkRequestOrigin::total            0                       # Table walker requests started/completed, data/inst
system.cpu.itb.walker.walks                         0                       # Table walker walks requested
system.cpu.itb.write_accesses                       0                       # DTB write accesses
system.cpu.itb.write_hits                           0                       # DTB write hits
system.cpu.itb.write_misses                         0                       # DTB write misses
system.cpu.not_idle_fraction                 1.000000                       # Percentage of non-idle cycles
system.cpu.numCycles                          2602442                       # number of cpu cycles simulated
system.cpu.numWorkItemsCompleted                    0                       # number of work items this cpu completed
system.cpu.numWorkItemsStarted                      0                       # number of work items this cpu started
system.cpu.num_busy_cycles               2602441.998000                       # Number of busy cycles
system.cpu.num_cc_register_reads                73232                       # number of times the CC registers were read
system.cpu.num_cc_register_writes               10796                       # number of times the CC registers were written
system.cpu.num_conditional_control_insts         2311                       # number of instructions that are conditional controls
system.cpu.num_fp_alu_accesses                      0                       # Number of float alu accesses
system.cpu.num_fp_insts                             0                       # number of float instructions
system.cpu.num_fp_register_reads                    0                       # number of times the floating registers were read
system.cpu.num_fp_register_writes                   0                       # number of times the floating registers were written
system.cpu.num_func_calls                         901                       # number of times a function call or return occured
system.cpu.num_idle_cycles                   0.002000                       # Number of idle cycles
system.cpu.num_int_alu_accesses                 18733                       # Number of integer alu accesses
system.cpu.num_int_insts                        18733                       # number of integer instructions
system.cpu.num_int_register_reads               31073                       # number of times the integer registers were read
system.cpu.num_int_register_writes              13139                       # number of times the integer registers were written
system.cpu.num_load_insts                        3399                       # Number of load instructions
system.cpu.num_mem_refs                          7028                       # number of memory refs
system.cpu.num_store_insts                       3629                       # Number of store instructions
system.cpu.num_vec_alu_accesses                     0                       # Number of vector alu accesses
system.cpu.num_vec_insts                            0                       # number of vector instructions
system.cpu.num_vec_register_reads                  40                       # number of times the vector registers were read
system.cpu.num_vec_register_writes                 13                       # number of times the vector registers were written
system.cpu.op_class::No_OpClass                     0      0.00%      0.00% # Class of executed instruction
system.cpu.op_class::IntAlu                     14234     66.31%     66.31% # Class of executed instruction
system.cpu.op_class::IntMult                      183      0.85%     67.16% # Class of executed instruction
system.cpu.op_class::IntDiv                         0      0.00%     67.16% # Class of executed instruction
system.cpu.op_class::FloatAdd                       0      0.00%     67.16% # Class of executed instruction
system.cpu.op_class::FloatCmp                       0      0.00%     67.16% # Class of executed instruction
system.cpu.op_class::FloatCvt                       0      0.00%     67.16% # Class of executed instruction
system.cpu.op_class::FloatMult                      0      0.00%     67.16% # Class of executed instruction
system.cpu.op_class::FloatMultAcc                   0      0.00%     67.16% # Class of executed instruction
system.cpu.op_class::FloatDiv                       0      0.00%     67.16% # Class of executed instruction
system.cpu.op_class::FloatMisc                      0      0.00%     67.16% # Class of executed instruction
system.cpu.op_class::FloatSqrt                      0      0.00%     67.16% # Class of executed instruction
system.cpu.op_class::SimdAdd                        0      0.00%     67.16% # Class of executed instruction
system.cpu.op_class::SimdAddAcc                     0      0.00%     67.16% # Class of executed instruction
system.cpu.op_class::SimdAlu                        0      0.00%     67.16% # Class of executed instruction
system.cpu.op_class::SimdCmp                        0      0.00%     67.16% # Class of executed instruction
system.cpu.op_class::SimdCvt                        0      0.00%     67.16% # Class of executed instruction
system.cpu.op_class::SimdMisc                       0      0.00%     67.16% # Class of executed instruction
system.cpu.op_class::SimdMult                       0      0.00%     67.16% # Class of executed instruction
system.cpu.op_class::SimdMultAcc                    0      0.00%     67.16% # Class of executed instruction
system.cpu.op_class::SimdShift                      0      0.00%     67.16% # Class of executed instruction
system.cpu.op_class::SimdShiftAcc                   0      0.00%     67.16% # Class of executed instruction
system.cpu.op_class::SimdDiv                        0      0.00%     67.16% # Class of executed instruction
system.cpu.op_class::SimdSqrt                       0      0.00%     67.16% # Class of executed instruction
system.cpu.op_class::SimdFloatAdd                   0      0.00%     67.16% # Class of executed instruction
system.cpu.op_class::SimdFloatAlu                   0      0.00%     67.16% # Class of executed instruction
system.cpu.op_class::SimdFloatCmp                   0      0.00%     67.16% # Class of executed instruction
system.cpu.op_class::SimdFloatCvt                   0      0.00%     67.16% # Class of executed instruction
system.cpu.op_class::SimdFloatDiv                   0      0.00%     67.16% # Class of executed instruction
system.cpu.op_class::SimdFloatMisc                 21      0.10%     67.26% # Class of executed instruction
system.cpu.op_class::SimdFloatMult                  0      0.00%     67.26% # Class of executed instruction
system.cpu.op_class::SimdFloatMultAcc               0      0.00%     67.26% # Class of executed instruction
system.cpu.op_class::SimdFloatSqrt                  0      0.00%     67.26% # Class of executed instruction
system.cpu.op_class::SimdReduceAdd                  0      0.00%     67.26% # Class of executed instruction
system.cpu.op_class::SimdReduceAlu                  0      0.00%     67.26% # Class of executed instruction
system.cpu.op_class::SimdReduceCmp                  0      0.00%     67.26% # Class of executed instruction
system.cpu.op_class::SimdFloatReduceAdd             0      0.00%     67.26% # Class of executed instruction
system.cpu.op_class::SimdFloatReduceCmp             0      0.00%     67.26% # Class of executed instruction
system.cpu.op_class::SimdAes                        0      0.00%     67.26% # Class of executed instruction
system.cpu.op_class::SimdAesMix                     0      0.00%     67.26% # Class of executed instruction
system.cpu.op_class::SimdSha1Hash                   0      0.00%     67.26% # Class of executed instruction
system.cpu.op_class::SimdSha1Hash2                  0      0.00%     67.26% # Class of executed instruction
system.cpu.op_class::SimdSha256Hash                 0      0.00%     67.26% # Class of executed instruction
system.cpu.op_class::SimdSha256Hash2                0      0.00%     67.26% # Class of executed instruction
system.cpu.op_class::SimdShaSigma2                  0      0.00%     67.26% # Class of executed instruction
system.cpu.op_class::SimdShaSigma3                  0      0.00%     67.26% # Class of executed instruction
system.cpu.op_class::SimdPredAlu                    0      0.00%     67.26% # Class of executed instruction
system.cpu.op_class::MemRead                     3399     15.83%     83.09% # Class of executed instruction
system.cpu.op_class::MemWrite                    3629     16.91%    100.00% # Class of executed instruction
system.cpu.op_class::FloatMemRead                   0      0.00%    100.00% # Class of executed instruction
system.cpu.op_class::FloatMemWrite                  0      0.00%    100.00% # Class of executed instruction
system.cpu.op_class::IprAccess                      0      0.00%    100.00% # Class of executed instruction
system.cpu.op_class::InstPrefetch                   0      0.00%    100.00% # Class of executed instruction
system.cpu.op_class::total                      21466                       # Class of executed instruction
system.cpu.workload.numSyscalls                     9                       # Number of system calls
system.membus.snoop_filter.hit_multi_requests            0                       # Number of requests hitting in the snoop filter with multiple (>1) holders of the requested data.
system.membus.snoop_filter.hit_multi_snoops            0                       # Number of snoops hitting in the snoop filter with multiple (>1) holders of the requested data.
system.membus.snoop_filter.hit_single_requests            0                       # Number of requests hitting in the snoop filter with a single holder of the requested data.
system.membus.snoop_filter.hit_single_snoops            0                       # Number of snoops hitting in the snoop filter with a single holder of the requested data.
system.membus.snoop_filter.tot_requests             0                       # Total number of requests made to the snoop filter.
system.membus.snoop_filter.tot_snoops               0                       # Total number of snoops made to the snoop filter.
system.membus.pwrStateResidencyTicks::UNDEFINED   1301221000                       # Cumulative time (in ticks) in various power states
system.membus.trans_dist::ReadReq               23652                       # Transaction distribution
system.membus.trans_dist::ReadResp              23686                       # Transaction distribution
system.membus.trans_dist::WriteReq               3565                       # Transaction distribution
system.membus.trans_dist::WriteResp              3565                       # Transaction distribution
system.membus.trans_dist::SoftPFReq                29                       # Transaction distribution
system.membus.trans_dist::SoftPFResp               29                       # Transaction distribution
system.membus.trans_dist::LoadLockedReq            34                       # Transaction distribution
system.membus.trans_dist::StoreCondReq             34                       # Transaction distribution
system.membus.trans_dist::StoreCondResp            34                       # Transaction distribution
system.membus.pkt_count_system.cpu.icache_port::system.mem_ctrls.port        40700                       # Packet count per connected master and slave (bytes)
system.membus.pkt_count_system.cpu.dcache_port::system.mem_ctrls.port        13928                       # Packet count per connected master and slave (bytes)
system.membus.pkt_count::total                  54628                       # Packet count per connected master and slave (bytes)
system.membus.pkt_size_system.cpu.icache_port::system.mem_ctrls.port        81400                       # Cumulative packet size per connected master and slave (bytes)
system.membus.pkt_size_system.cpu.dcache_port::system.mem_ctrls.port        35513                       # Cumulative packet size per connected master and slave (bytes)
system.membus.pkt_size::total                  116913                       # Cumulative packet size per connected master and slave (bytes)
system.membus.snoops                                0                       # Total snoops (count)
system.membus.snoopTraffic                          0                       # Total snoop traffic (bytes)
system.membus.snoop_fanout::samples             27314                       # Request fanout histogram
system.membus.snoop_fanout::mean                    0                       # Request fanout histogram
system.membus.snoop_fanout::stdev                   0                       # Request fanout histogram
system.membus.snoop_fanout::underflows              0      0.00%      0.00% # Request fanout histogram
system.membus.snoop_fanout::0                   27314    100.00%    100.00% # Request fanout histogram
system.membus.snoop_fanout::1                       0      0.00%    100.00% # Request fanout histogram
system.membus.snoop_fanout::overflows               0      0.00%    100.00% # Request fanout histogram
system.membus.snoop_fanout::min_value               0                       # Request fanout histogram
system.membus.snoop_fanout::max_value               0                       # Request fanout histogram
system.membus.snoop_fanout::total               27314                       # Request fanout histogram
system.membus.reqLayer0.occupancy            30913000                       # Layer occupancy (ticks)
system.membus.reqLayer0.utilization               2.4                       # Layer utilization (%)
system.membus.respLayer1.occupancy           46136000                       # Layer occupancy (ticks)
system.membus.respLayer1.utilization              3.5                       # Layer utilization (%)
system.membus.respLayer2.occupancy           11249250                       # Layer occupancy (ticks)
system.membus.respLayer2.utilization              0.9                       # Layer utilization (%)
system.voltage_domain.voltage                       1                       # Voltage in Volts
system.clk_domain.clock                          1000                       # Clock period in ticks
system.cpu_voltage_domain.voltage                   1                       # Voltage in Volts
system.mem_ctrls.pwrStateResidencyTicks::UNDEFINED   1301221000                       # Cumulative time (in ticks) in various power states
system.mem_ctrls.bytes_read::.cpu.inst          81400                       # Number of bytes read from this memory
system.mem_ctrls.bytes_read::.cpu.data          19289                       # Number of bytes read from this memory
system.mem_ctrls.bytes_read::total             100689                       # Number of bytes read from this memory
system.mem_ctrls.bytes_inst_read::.cpu.inst        81400                       # Number of instructions bytes read from this memory
system.mem_ctrls.bytes_inst_read::total         81400                       # Number of instructions bytes read from this memory
system.mem_ctrls.bytes_written::.cpu.data        16224                       # Number of bytes written to this memory
system.mem_ctrls.bytes_written::total           16224                       # Number of bytes written to this memory
system.mem_ctrls.num_reads::.cpu.inst           20350                       # Number of read requests responded to by this memory
system.mem_ctrls.num_reads::.cpu.data            3365                       # Number of read requests responded to by this memory
system.mem_ctrls.num_reads::total               23715                       # Number of read requests responded to by this memory
system.mem_ctrls.num_writes::.cpu.data           3599                       # Number of write requests responded to by this memory
system.mem_ctrls.num_writes::total               3599                       # Number of write requests responded to by this memory
system.mem_ctrls.bw_read::.cpu.inst          62556630                       # Total read bandwidth from this memory (bytes/s)
system.mem_ctrls.bw_read::.cpu.data          14823769                       # Total read bandwidth from this memory (bytes/s)
system.mem_ctrls.bw_read::total              77380399                       # Total read bandwidth from this memory (bytes/s)
system.mem_ctrls.bw_inst_read::.cpu.inst     62556630                       # Instruction read bandwidth from this memory (bytes/s)
system.mem_ctrls.bw_inst_read::total         62556630                       # Instruction read bandwidth from this memory (bytes/s)
system.mem_ctrls.bw_write::.cpu.data         12468289                       # Write bandwidth from this memory (bytes/s)
system.mem_ctrls.bw_write::total             12468289                       # Write bandwidth from this memory (bytes/s)
system.mem_ctrls.bw_total::.cpu.inst         62556630                       # Total bandwidth to/from this memory (bytes/s)
system.mem_ctrls.bw_total::.cpu.data         27292059                       # Total bandwidth to/from this memory (bytes/s)
system.mem_ctrls.bw_total::total             89848688                       # Total bandwidth to/from this memory (bytes/s)
system.mem_ctrls.avgPriority_.cpu.inst::samples     20350.00                       # Average QoS priority value for accepted requests
system.mem_ctrls.avgPriority_.cpu.data::samples      3307.00                       # Average QoS priority value for accepted requests
system.mem_ctrls.priorityMinLatency      0.000000018750                       # per QoS priority minimum request to response latency (s)
system.mem_ctrls.priorityMaxLatency      0.000833138750                       # per QoS priority maximum request to response latency (s)
system.mem_ctrls.numReadWriteTurnArounds            5                       # Number of turnarounds from READ to WRITE
system.mem_ctrls.numWriteReadTurnArounds            5                       # Number of turnarounds from WRITE to READ
system.mem_ctrls.numStayReadState               51027                       # Number of times bus staying in READ state
system.mem_ctrls.numStayWriteState                 75                       # Number of times bus staying in WRITE state
system.mem_ctrls.readReqs                       23715                       # Number of read requests accepted
system.mem_ctrls.writeReqs                       3599                       # Number of write requests accepted
system.mem_ctrls.readBursts                     23715                       # Number of DRAM read bursts, including those serviced by the write queue
system.mem_ctrls.writeBursts                     3599                       # Number of DRAM write bursts, including those merged in the write queue
system.mem_ctrls.servicedByWrQ                    165                       # Number of DRAM read bursts serviced by the write queue
system.mem_ctrls.mergedWrBursts                  3492                       # Number of DRAM write bursts merged with an existing one
system.mem_ctrls.neitherReadNorWriteReqs            0                       # Number of requests that are neither read nor write
system.mem_ctrls.perBankRdBursts::0               939                       # Per bank write bursts
system.mem_ctrls.perBankRdBursts::1                 2                       # Per bank write bursts
system.mem_ctrls.perBankRdBursts::2             12499                       # Per bank write bursts
system.mem_ctrls.perBankRdBursts::3               180                       # Per bank write bursts
system.mem_ctrls.perBankRdBursts::4               748                       # Per bank write bursts
system.mem_ctrls.perBankRdBursts::5               755                       # Per bank write bursts
system.mem_ctrls.perBankRdBursts::6              2947                       # Per bank write bursts
system.mem_ctrls.perBankRdBursts::7               946                       # Per bank write bursts
system.mem_ctrls.perBankRdBursts::8               191                       # Per bank write bursts
system.mem_ctrls.perBankRdBursts::9              2938                       # Per bank write bursts
system.mem_ctrls.perBankRdBursts::10             1156                       # Per bank write bursts
system.mem_ctrls.perBankRdBursts::11               89                       # Per bank write bursts
system.mem_ctrls.perBankRdBursts::12                6                       # Per bank write bursts
system.mem_ctrls.perBankRdBursts::13              100                       # Per bank write bursts
system.mem_ctrls.perBankRdBursts::14               54                       # Per bank write bursts
system.mem_ctrls.perBankRdBursts::15                0                       # Per bank write bursts
system.mem_ctrls.perBankWrBursts::0                 0                       # Per bank write bursts
system.mem_ctrls.perBankWrBursts::1                 0                       # Per bank write bursts
system.mem_ctrls.perBankWrBursts::2                 0                       # Per bank write bursts
system.mem_ctrls.perBankWrBursts::3                 0                       # Per bank write bursts
system.mem_ctrls.perBankWrBursts::4                 0                       # Per bank write bursts
system.mem_ctrls.perBankWrBursts::5                 0                       # Per bank write bursts
system.mem_ctrls.perBankWrBursts::6                 0                       # Per bank write bursts
system.mem_ctrls.perBankWrBursts::7                 0                       # Per bank write bursts
system.mem_ctrls.perBankWrBursts::8                 4                       # Per bank write bursts
system.mem_ctrls.perBankWrBursts::9                42                       # Per bank write bursts
system.mem_ctrls.perBankWrBursts::10               19                       # Per bank write bursts
system.mem_ctrls.perBankWrBursts::11               15                       # Per bank write bursts
system.mem_ctrls.perBankWrBursts::12                0                       # Per bank write bursts
system.mem_ctrls.perBankWrBursts::13                0                       # Per bank write bursts
system.mem_ctrls.perBankWrBursts::14                0                       # Per bank write bursts
system.mem_ctrls.perBankWrBursts::15                0                       # Per bank write bursts
system.mem_ctrls.avgRdQLen                       1.00                       # Average read queue length when enqueuing
system.mem_ctrls.avgWrQLen                      23.34                       # Average write queue length when enqueuing
system.mem_ctrls.totQLat                     68452250                       # Total ticks spent queuing
system.mem_ctrls.totBusLat                  117750000                       # Total ticks spent in databus transfers
system.mem_ctrls.totMemAccLat               510014750                       # Total ticks spent from burst creation until serviced by the DRAM
system.mem_ctrls.avgQLat                      2906.68                       # Average queueing delay per DRAM burst
system.mem_ctrls.avgBusLat                    5000.00                       # Average bus latency per DRAM burst
system.mem_ctrls.avgMemAccLat                21656.68                       # Average memory access latency per DRAM burst
system.mem_ctrls.numRdRetry                         0                       # Number of times read queue was full causing retry
system.mem_ctrls.numWrRetry                         0                       # Number of times write queue was full causing retry
system.mem_ctrls.readRowHits                    21669                       # Number of row buffer hits during reads
system.mem_ctrls.writeRowHits                      73                       # Number of row buffer hits during writes
system.mem_ctrls.readRowHitRate                 92.01                       # Row buffer hit rate for reads
system.mem_ctrls.writeRowHitRate                68.22                       # Row buffer hit rate for writes
system.mem_ctrls.readPktSize::0                    93                       # Read request sizes (log2)
system.mem_ctrls.readPktSize::1                    28                       # Read request sizes (log2)
system.mem_ctrls.readPktSize::2                 22053                       # Read request sizes (log2)
system.mem_ctrls.readPktSize::3                  1541                       # Read request sizes (log2)
system.mem_ctrls.readPktSize::4                     0                       # Read request sizes (log2)
system.mem_ctrls.readPktSize::5                     0                       # Read request sizes (log2)
system.mem_ctrls.readPktSize::6                     0                       # Read request sizes (log2)
system.mem_ctrls.writePktSize::0                   22                       # Write request sizes (log2)
system.mem_ctrls.writePktSize::1                    9                       # Write request sizes (log2)
system.mem_ctrls.writePktSize::2                 3090                       # Write request sizes (log2)
system.mem_ctrls.writePktSize::3                  478                       # Write request sizes (log2)
system.mem_ctrls.writePktSize::4                    0                       # Write request sizes (log2)
system.mem_ctrls.writePktSize::5                    0                       # Write request sizes (log2)
system.mem_ctrls.writePktSize::6                    0                       # Write request sizes (log2)
system.mem_ctrls.rdQLenPdf::0                   23546                       # What read queue length does an incoming req see
system.mem_ctrls.rdQLenPdf::1                       4                       # What read queue length does an incoming req see
system.mem_ctrls.rdQLenPdf::2                       0                       # What read queue length does an incoming req see
system.mem_ctrls.rdQLenPdf::3                       0                       # What read queue length does an incoming req see
system.mem_ctrls.rdQLenPdf::4                       0                       # What read queue length does an incoming req see
system.mem_ctrls.rdQLenPdf::5                       0                       # What read queue length does an incoming req see
system.mem_ctrls.rdQLenPdf::6                       0                       # What read queue length does an incoming req see
system.mem_ctrls.rdQLenPdf::7                       0                       # What read queue length does an incoming req see
system.mem_ctrls.rdQLenPdf::8                       0                       # What read queue length does an incoming req see
system.mem_ctrls.rdQLenPdf::9                       0                       # What read queue length does an incoming req see
system.mem_ctrls.rdQLenPdf::10                      0                       # What read queue length does an incoming req see
system.mem_ctrls.rdQLenPdf::11                      0                       # What read queue length does an incoming req see
system.mem_ctrls.rdQLenPdf::12                      0                       # What read queue length does an incoming req see
system.mem_ctrls.rdQLenPdf::13                      0                       # What read queue length does an incoming req see
system.mem_ctrls.rdQLenPdf::14                      0                       # What read queue length does an incoming req see
system.mem_ctrls.rdQLenPdf::15                      0                       # What read queue length does an incoming req see
system.mem_ctrls.rdQLenPdf::16                      0                       # What read queue length does an incoming req see
system.mem_ctrls.rdQLenPdf::17                      0                       # What read queue length does an incoming req see
system.mem_ctrls.rdQLenPdf::18                      0                       # What read queue length does an incoming req see
system.mem_ctrls.rdQLenPdf::19                      0                       # What read queue length does an incoming req see
system.mem_ctrls.rdQLenPdf::20                      0                       # What read queue length does an incoming req see
system.mem_ctrls.rdQLenPdf::21                      0                       # What read queue length does an incoming req see
system.mem_ctrls.rdQLenPdf::22                      0                       # What read queue length does an incoming req see
system.mem_ctrls.rdQLenPdf::23                      0                       # What read queue length does an incoming req see
system.mem_ctrls.rdQLenPdf::24                      0                       # What read queue length does an incoming req see
system.mem_ctrls.rdQLenPdf::25                      0                       # What read queue length does an incoming req see
system.mem_ctrls.rdQLenPdf::26                      0                       # What read queue length does an incoming req see
system.mem_ctrls.rdQLenPdf::27                      0                       # What read queue length does an incoming req see
system.mem_ctrls.rdQLenPdf::28                      0                       # What read queue length does an incoming req see
system.mem_ctrls.rdQLenPdf::29                      0                       # What read queue length does an incoming req see
system.mem_ctrls.rdQLenPdf::30                      0                       # What read queue length does an incoming req see
system.mem_ctrls.rdQLenPdf::31                      0                       # What read queue length does an incoming req see
system.mem_ctrls.wrQLenPdf::0                       1                       # What write queue length does an incoming req see
system.mem_ctrls.wrQLenPdf::1                       1                       # What write queue length does an incoming req see
system.mem_ctrls.wrQLenPdf::2                       1                       # What write queue length does an incoming req see
system.mem_ctrls.wrQLenPdf::3                       1                       # What write queue length does an incoming req see
system.mem_ctrls.wrQLenPdf::4                       1                       # What write queue length does an incoming req see
system.mem_ctrls.wrQLenPdf::5                       1                       # What write queue length does an incoming req see
system.mem_ctrls.wrQLenPdf::6                       1                       # What write queue length does an incoming req see
system.mem_ctrls.wrQLenPdf::7                       1                       # What write queue length does an incoming req see
system.mem_ctrls.wrQLenPdf::8                       1                       # What write queue length does an incoming req see
system.mem_ctrls.wrQLenPdf::9                       1                       # What write queue length does an incoming req see
system.mem_ctrls.wrQLenPdf::10                      1                       # What write queue length does an incoming req see
system.mem_ctrls.wrQLenPdf::11                      1                       # What write queue length does an incoming req see
system.mem_ctrls.wrQLenPdf::12                      1                       # What write queue length does an incoming req see
system.mem_ctrls.wrQLenPdf::13                      1                       # What write queue length does an incoming req see
system.mem_ctrls.wrQLenPdf::14                      1                       # What write queue length does an incoming req see
system.mem_ctrls.wrQLenPdf::15                      1                       # What write queue length does an incoming req see
system.mem_ctrls.wrQLenPdf::16                      1                       # What write queue length does an incoming req see
system.mem_ctrls.wrQLenPdf::17                      6                       # What write queue length does an incoming req see
system.mem_ctrls.wrQLenPdf::18                      6                       # What write queue length does an incoming req see
system.mem_ctrls.wrQLenPdf::19                      6                       # What write queue length does an incoming req see
system.mem_ctrls.wrQLenPdf::20                      6                       # What write queue length does an incoming req see
system.mem_ctrls.wrQLenPdf::21                      6                       # What write queue length does an incoming req see
system.mem_ctrls.wrQLenPdf::22                      6                       # What write queue length does an incoming req see
system.mem_ctrls.wrQLenPdf::23                      6                       # What write queue length does an incoming req see
system.mem_ctrls.wrQLenPdf::24                      6                       # What write queue length does an incoming req see
system.mem_ctrls.wrQLenPdf::25                      6                       # What write queue length does an incoming req see
system.mem_ctrls.wrQLenPdf::26                      6                       # What write queue length does an incoming req see
system.mem_ctrls.wrQLenPdf::27                      5                       # What write queue length does an incoming req see
system.mem_ctrls.wrQLenPdf::28                      5                       # What write queue length does an incoming req see
system.mem_ctrls.wrQLenPdf::29                      5                       # What write queue length does an incoming req see
system.mem_ctrls.wrQLenPdf::30                      5                       # What write queue length does an incoming req see
system.mem_ctrls.wrQLenPdf::31                      5                       # What write queue length does an incoming req see
system.mem_ctrls.wrQLenPdf::32                      5                       # What write queue length does an incoming req see
system.mem_ctrls.wrQLenPdf::33                      0                       # What write queue length does an incoming req see
system.mem_ctrls.wrQLenPdf::34                      0                       # What write queue length does an incoming req see
system.mem_ctrls.wrQLenPdf::35                      0                       # What write queue length does an incoming req see
system.mem_ctrls.wrQLenPdf::36                      0                       # What write queue length does an incoming req see
system.mem_ctrls.wrQLenPdf::37                      0                       # What write queue length does an incoming req see
system.mem_ctrls.wrQLenPdf::38                      0                       # What write queue length does an incoming req see
system.mem_ctrls.wrQLenPdf::39                      0                       # What write queue length does an incoming req see
system.mem_ctrls.wrQLenPdf::40                      0                       # What write queue length does an incoming req see
system.mem_ctrls.wrQLenPdf::41                      0                       # What write queue length does an incoming req see
system.mem_ctrls.wrQLenPdf::42                      0                       # What write queue length does an incoming req see
system.mem_ctrls.wrQLenPdf::43                      0                       # What write queue length does an incoming req see
system.mem_ctrls.wrQLenPdf::44                      0                       # What write queue length does an incoming req see
system.mem_ctrls.wrQLenPdf::45                      0                       # What write queue length does an incoming req see
system.mem_ctrls.wrQLenPdf::46                      0                       # What write queue length does an incoming req see
system.mem_ctrls.wrQLenPdf::47                      0                       # What write queue length does an incoming req see
system.mem_ctrls.wrQLenPdf::48                      0                       # What write queue length does an incoming req see
system.mem_ctrls.wrQLenPdf::49                      0                       # What write queue length does an incoming req see
system.mem_ctrls.wrQLenPdf::50                      0                       # What write queue length does an incoming req see
system.mem_ctrls.wrQLenPdf::51                      0                       # What write queue length does an incoming req see
system.mem_ctrls.wrQLenPdf::52                      0                       # What write queue length does an incoming req see
system.mem_ctrls.wrQLenPdf::53                      0                       # What write queue length does an incoming req see
system.mem_ctrls.wrQLenPdf::54                      0                       # What write queue length does an incoming req see
system.mem_ctrls.wrQLenPdf::55                      0                       # What write queue length does an incoming req see
system.mem_ctrls.wrQLenPdf::56                      0                       # What write queue length does an incoming req see
system.mem_ctrls.wrQLenPdf::57                      0                       # What write queue length does an incoming req see
system.mem_ctrls.wrQLenPdf::58                      0                       # What write queue length does an incoming req see
system.mem_ctrls.wrQLenPdf::59                      0                       # What write queue length does an incoming req see
system.mem_ctrls.wrQLenPdf::60                      0                       # What write queue length does an incoming req see
system.mem_ctrls.wrQLenPdf::61                      0                       # What write queue length does an incoming req see
system.mem_ctrls.wrQLenPdf::62                      0                       # What write queue length does an incoming req see
system.mem_ctrls.wrQLenPdf::63                      0                       # What write queue length does an incoming req see
system.mem_ctrls.bytesPerActivate::samples         1885                       # Bytes accessed per row activation
system.mem_ctrls.bytesPerActivate::mean    801.918302                       # Bytes accessed per row activation
system.mem_ctrls.bytesPerActivate::gmean   665.854015                       # Bytes accessed per row activation
system.mem_ctrls.bytesPerActivate::stdev   334.715755                       # Bytes accessed per row activation
system.mem_ctrls.bytesPerActivate::0-127           91      4.83%      4.83% # Bytes accessed per row activation
system.mem_ctrls.bytesPerActivate::128-255          114      6.05%     10.88% # Bytes accessed per row activation
system.mem_ctrls.bytesPerActivate::256-383           78      4.14%     15.01% # Bytes accessed per row activation
system.mem_ctrls.bytesPerActivate::384-511          161      8.54%     23.55% # Bytes accessed per row activation
system.mem_ctrls.bytesPerActivate::512-639           95      5.04%     28.59% # Bytes accessed per row activation
system.mem_ctrls.bytesPerActivate::640-767           38      2.02%     30.61% # Bytes accessed per row activation
system.mem_ctrls.bytesPerActivate::768-895           43      2.28%     32.89% # Bytes accessed per row activation
system.mem_ctrls.bytesPerActivate::896-1023           62      3.29%     36.18% # Bytes accessed per row activation
system.mem_ctrls.bytesPerActivate::1024-1151         1203     63.82%    100.00% # Bytes accessed per row activation
system.mem_ctrls.bytesPerActivate::total         1885                       # Bytes accessed per row activation
system.mem_ctrls.rdPerTurnAround::samples            5                       # Reads before turning the bus around for writes
system.mem_ctrls.rdPerTurnAround::mean    1649.800000                       # Reads before turning the bus around for writes
system.mem_ctrls.rdPerTurnAround::gmean   1408.733366                       # Reads before turning the bus around for writes
system.mem_ctrls.rdPerTurnAround::stdev    894.291172                       # Reads before turning the bus around for writes
system.mem_ctrls.rdPerTurnAround::384-511            1     20.00%     20.00% # Reads before turning the bus around for writes
system.mem_ctrls.rdPerTurnAround::1024-1151            1     20.00%     40.00% # Reads before turning the bus around for writes
system.mem_ctrls.rdPerTurnAround::1536-1663            1     20.00%     60.00% # Reads before turning the bus around for writes
system.mem_ctrls.rdPerTurnAround::2304-2431            1     20.00%     80.00% # Reads before turning the bus around for writes
system.mem_ctrls.rdPerTurnAround::2560-2687            1     20.00%    100.00% # Reads before turning the bus around for writes
system.mem_ctrls.rdPerTurnAround::total             5                       # Reads before turning the bus around for writes
system.mem_ctrls.wrPerTurnAround::samples            5                       # Writes before turning the bus around for reads
system.mem_ctrls.wrPerTurnAround::mean             16                       # Writes before turning the bus around for reads
system.mem_ctrls.wrPerTurnAround::gmean     16.000000                       # Writes before turning the bus around for reads
system.mem_ctrls.wrPerTurnAround::16                5    100.00%    100.00% # Writes before turning the bus around for reads
system.mem_ctrls.wrPerTurnAround::total             5                       # Writes before turning the bus around for reads
system.mem_ctrls.bytesReadDRAM                1507200                       # Total number of bytes read from DRAM
system.mem_ctrls.bytesReadWrQ                   10560                       # Total number of bytes read from write queue
system.mem_ctrls.bytesWritten                    5120                       # Total number of bytes written to DRAM
system.mem_ctrls.bytesReadSys                  100689                       # Total read bytes from the system interface side
system.mem_ctrls.bytesWrittenSys                16224                       # Total written bytes from the system interface side
system.mem_ctrls.avgRdBW                      1158.30                       # Average DRAM read bandwidth in MiByte/s
system.mem_ctrls.avgWrBW                         3.93                       # Average achieved write bandwidth in MiByte/s
system.mem_ctrls.avgRdBWSys                     77.38                       # Average system read bandwidth in MiByte/s
system.mem_ctrls.avgWrBWSys                     12.47                       # Average system write bandwidth in MiByte/s
system.mem_ctrls.peakBW                      12800.00                       # Theoretical peak bandwidth in MiByte/s
system.mem_ctrls.busUtil                         9.08                       # Data bus utilization in percentage
system.mem_ctrls.busUtilRead                     9.05                       # Data bus utilization in percentage for reads
system.mem_ctrls.busUtilWrite                    0.03                       # Data bus utilization in percentage for writes
system.mem_ctrls.totGap                    1301095000                       # Total gap between requests
system.mem_ctrls.avgGap                      47634.73                       # Average gap between requests
system.mem_ctrls.masterReadBytes::.cpu.inst        81400                       # Per-master bytes read from memory
system.mem_ctrls.masterReadBytes::.cpu.data        18629                       # Per-master bytes read from memory
system.mem_ctrls.masterWriteBytes::.cpu.data          330                       # Per-master bytes write to memory
system.mem_ctrls.masterReadRate::.cpu.inst 62556629.504134960473                       # Per-master bytes read from memory rate (Bytes/sec)
system.mem_ctrls.masterReadRate::.cpu.data 14316553.452488087118                       # Per-master bytes read from memory rate (Bytes/sec)
system.mem_ctrls.masterWriteRate::.cpu.data 253607.957449195790                       # Per-master bytes write to memory rate (Bytes/sec)
system.mem_ctrls.masterReadAccesses::.cpu.inst        20350                       # Per-master read serviced memory accesses
system.mem_ctrls.masterReadAccesses::.cpu.data         3365                       # Per-master read serviced memory accesses
system.mem_ctrls.masterWriteAccesses::.cpu.data         3599                       # Per-master write serviced memory accesses
system.mem_ctrls.masterReadTotalLat::.cpu.inst    439413000                       # Per-master read total memory access latency
system.mem_ctrls.masterReadTotalLat::.cpu.data     70601750                       # Per-master read total memory access latency
system.mem_ctrls.masterWriteTotalLat::.cpu.data  10098371000                       # Per-master write total memory access latency
system.mem_ctrls.masterReadAvgLat::.cpu.inst     21592.78                       # Per-master read average memory access latency
system.mem_ctrls.masterReadAvgLat::.cpu.data     20981.20                       # Per-master read average memory access latency
system.mem_ctrls.masterWriteAvgLat::.cpu.data   2805882.47                       # Per-master write average memory access latency
system.mem_ctrls.pageHitRate                    91.91                       # Row buffer hit rate, read and write combined
system.mem_ctrls.rank1.actEnergy              4034100                       # Energy for activate commands per rank (pJ)
system.mem_ctrls.rank1.preEnergy              2140380                       # Energy for precharge commands per rank (pJ)
system.mem_ctrls.rank1.readEnergy            32372760                       # Energy for read commands per rank (pJ)
system.mem_ctrls.rank1.writeEnergy             417600                       # Energy for write commands per rank (pJ)
system.mem_ctrls.rank1.refreshEnergy     102644880.000000                       # Energy for refresh commands per rank (pJ)
system.mem_ctrls.rank1.actBackEnergy        537839460                       # Energy for active background per rank (pJ)
system.mem_ctrls.rank1.preBackEnergy         46751520                       # Energy for precharge background per rank (pJ)
system.mem_ctrls.rank1.actPowerDownEnergy            0                       # Energy for active power-down per rank (pJ)
system.mem_ctrls.rank1.prePowerDownEnergy            0                       # Energy for precharge power-down per rank (pJ)
system.mem_ctrls.rank1.selfRefreshEnergy            0                       # Energy for self refresh per rank (pJ)
system.mem_ctrls.rank1.totalEnergy          726200700                       # Total energy per rank (pJ)
system.mem_ctrls.rank1.averagePower        558.091746                       # Core power per rank (mW)
system.mem_ctrls.rank1.totalIdleTime                0                       # Total Idle time Per DRAM Rank
system.mem_ctrls.rank1.memoryStateTime::IDLE    117002000                       # Time in different power states
system.mem_ctrls.rank1.memoryStateTime::REF     43420000                       # Time in different power states
system.mem_ctrls.rank1.memoryStateTime::SREF            0                       # Time in different power states
system.mem_ctrls.rank1.memoryStateTime::PRE_PDN            0                       # Time in different power states
system.mem_ctrls.rank1.memoryStateTime::ACT   1140799000                       # Time in different power states
system.mem_ctrls.rank1.memoryStateTime::ACT_PDN            0                       # Time in different power states
system.mem_ctrls.rank0.actEnergy              9446220                       # Energy for activate commands per rank (pJ)
system.mem_ctrls.rank0.preEnergy              5013195                       # Energy for precharge commands per rank (pJ)
system.mem_ctrls.rank0.readEnergy           135774240                       # Energy for read commands per rank (pJ)
system.mem_ctrls.rank0.writeEnergy                  0                       # Energy for write commands per rank (pJ)
system.mem_ctrls.rank0.refreshEnergy     102644880.000000                       # Energy for refresh commands per rank (pJ)
system.mem_ctrls.rank0.actBackEnergy        553977870                       # Energy for active background per rank (pJ)
system.mem_ctrls.rank0.preBackEnergy         33161280                       # Energy for precharge background per rank (pJ)
system.mem_ctrls.rank0.actPowerDownEnergy            0                       # Energy for active power-down per rank (pJ)
system.mem_ctrls.rank0.prePowerDownEnergy            0                       # Energy for precharge power-down per rank (pJ)
system.mem_ctrls.rank0.selfRefreshEnergy            0                       # Energy for self refresh per rank (pJ)
system.mem_ctrls.rank0.totalEnergy          840017685                       # Total energy per rank (pJ)
system.mem_ctrls.rank0.averagePower        645.561119                       # Core power per rank (mW)
system.mem_ctrls.rank0.totalIdleTime                0                       # Total Idle time Per DRAM Rank
system.mem_ctrls.rank0.memoryStateTime::IDLE     69114750                       # Time in different power states
system.mem_ctrls.rank0.memoryStateTime::REF     43420000                       # Time in different power states
system.mem_ctrls.rank0.memoryStateTime::SREF            0                       # Time in different power states
system.mem_ctrls.rank0.memoryStateTime::PRE_PDN            0                       # Time in different power states
system.mem_ctrls.rank0.memoryStateTime::ACT   1188686250                       # Time in different power states
system.mem_ctrls.rank0.memoryStateTime::ACT_PDN            0                       # Time in different power states
system.cpu_clk_domain.clock                       500                       # Clock period in ticks
system.cpu.numPwrStateTransitions                   1                       # Number of power state transitions
system.cpu.pwrStateResidencyTicks::ON      1301221000                       # Cumulative time (in ticks) in various power states
system.cpu.dtb.walker.pwrStateResidencyTicks::UNDEFINED   1301221000                       # Cumulative time (in ticks) in various power states
system.cpu.dtb.stage2_mmu.stage2_tlb.walker.pwrStateResidencyTicks::UNDEFINED   1301221000                       # Cumulative time (in ticks) in various power states
system.cpu.itb.walker.pwrStateResidencyTicks::UNDEFINED   1301221000                       # Cumulative time (in ticks) in various power states
system.cpu.itb.stage2_mmu.stage2_tlb.walker.pwrStateResidencyTicks::UNDEFINED   1301221000                       # Cumulative time (in ticks) in various power states

---------- End Simulation Statistics   ----------
